REMARK  7 active torsions:
REMARK  status: ('A' for Active; 'I' for Inactive)
REMARK    1  A    between atoms: N2_2  and  C4_4 
REMARK    2  A    between atoms: C1_9  and  C7_10 
REMARK    3  A    between atoms: C7_10  and  C8_12 
REMARK    4  A    between atoms: C8_12  and  C9_14 
REMARK    5  A    between atoms: C10_15  and  C11_17 
REMARK    6  A    between atoms: C12_18  and  C13_19 
REMARK       I    between atoms: C13_19  and  N1_21 
REMARK    7  A    between atoms: N1_21  and  O1_23 
ROOT
ATOM      1  C16 INH     1      43.676  38.384  58.878  0.00  0.00     0.149 C 
ATOM      2  N2  INH     1      43.118  37.155  58.304  0.00  0.00    -0.390 N 
ATOM      3  C17 INH     1      41.859  36.666  58.893  0.00  0.00     0.149 C 
ENDROOT
BRANCH   2   4
ATOM      4  C4  INH     1      43.851  36.370  57.429  0.00  0.00     0.029 A 
ATOM      5  C5  INH     1      43.293  35.242  56.850  0.00  0.00     0.030 A 
ATOM      6  C6  INH     1      44.037  34.473  55.967  0.00  0.00     0.017 A 
ATOM      7  C1  INH     1      45.362  34.812  55.667  0.00  0.00     0.011 A 
ATOM      8  C2  INH     1      45.914  35.955  56.225  0.00  0.00     0.017 A 
ATOM      9  C3  INH     1      45.155  36.725  57.098  0.00  0.00     0.030 A 
BRANCH   7  10
ATOM     10  C7  INH     1      46.207  34.026  54.716  0.00  0.00     0.166 C 
ATOM     11  O3  INH     1      47.394  34.257  54.604  0.00  0.00    -0.292 OA
BRANCH  10  12
ATOM     12  C8  INH     1      45.544  32.977  53.846  0.00  0.00     0.079 C 
ATOM     13  C14 INH     1      46.492  31.785  53.580  0.00  0.00     0.022 C 
BRANCH  12  14
ATOM     14  C9  INH     1      45.218  33.640  52.523  0.00  0.00    -0.008 C 
ATOM     15  C10 INH     1      44.016  33.580  51.936  0.00  0.00    -0.065 C 
ATOM     16  C15 INH     1      42.809  32.883  52.515  0.00  0.00     0.048 C 
BRANCH  15  17
ATOM     17  C11 INH     1      43.861  34.212  50.643  0.00  0.00     0.012 C 
ATOM     18  C12 INH     1      43.072  33.844  49.643  0.00  0.00     0.076 C 
BRANCH  18  19
ATOM     19  C13 INH     1      43.022  34.527  48.351  0.00  0.00     0.264 C 
ATOM     20  O2  INH     1      43.738  35.462  48.003  0.00  0.00    -0.266 OA
ATOM     21  N1  INH     1      42.264  33.997  47.418  0.00  0.00    -0.234 N 
ATOM     22  H1  INH     1      41.843  33.072  47.563  0.00  0.00     0.197 HD
BRANCH  21  23
ATOM     23  O1  INH     1      42.652  34.244  46.108  0.00  0.00    -0.287 OA
ATOM     24  H11 INH     1      41.930  33.744  45.539  0.00  0.00     0.244 HD
ENDBRANCH  21  23
ENDBRANCH  18  19
ENDBRANCH  15  17
ENDBRANCH  12  14
ENDBRANCH  10  12
ENDBRANCH   7  10
ENDBRANCH   2   4
TORSDOF 7
